@<TRIPOS>MOLECULE
PLM
    50     49      1
SMALL
USER_CHARGES

Converted from PLM.cif
@<TRIPOS>ATOM
       1 C1        -44.7970   67.1810   -6.0070 C         1 PLM         0.0000
       2 O1        -45.1970   66.0110   -6.1500 O         1 PLM         0.0000
       3 O2        -43.6010   67.5090   -6.1620 O         1 PLM         0.0000
       4 C2        -45.8100   68.2430   -5.6090 C         1 PLM         0.0000
       5 C3        -45.5430   69.6070   -6.2380 C         1 PLM         0.0000
       6 C4        -46.4610   70.6540   -5.6220 C         1 PLM         0.0000
       7 C5        -46.1770   72.0510   -6.1410 C         1 PLM         0.0000
       8 C6        -46.9100   72.3140   -7.4370 C         1 PLM         0.0000
       9 C7        -48.4120   72.3210   -7.2190 C         1 PLM         0.0000
      10 C8        -49.1520   72.4290   -8.5340 C         1 PLM         0.0000
      11 C9        -50.6540   72.3260   -8.3240 C         1 PLM         0.0000
      12 CA        -51.4000   72.3690   -9.6420 C         1 PLM         0.0000
      13 CB        -51.0900   71.1610  -10.5080 C         1 PLM         0.0000
      14 CC        -51.6610   71.3430  -11.9040 C         1 PLM         0.0000
      15 CD        -51.5770   70.0680  -12.7250 C         1 PLM         0.0000
      16 CE        -51.9790   70.3190  -14.1790 C         1 PLM         0.0000
      17 CF        -53.3530   70.9670  -14.2940 C         1 PLM         0.0000
      18 CG        -53.6980   71.2810  -15.7430 C         1 PLM         0.0000
      19 H         -46.1060   65.7610   -6.0320 H         1 PLM         0.0000
      20 H21       -46.8470   67.9010   -5.8330 H         1 PLM         0.0000
      21 H22       -45.8770   68.3270   -4.4990 H         1 PLM         0.0000
      22 H31       -44.4690   69.8970   -6.1640 H         1 PLM         0.0000
      23 H32       -45.6280   69.5780   -7.3490 H         1 PLM         0.0000
      24 H41       -47.5320   70.3820   -5.7650 H         1 PLM         0.0000
      25 H42       -46.4150   70.6220   -4.5080 H         1 PLM         0.0000
      26 H51       -46.4080   72.8270   -5.3740 H         1 PLM         0.0000
      27 H52       -45.0820   72.2340   -6.2450 H         1 PLM         0.0000
      28 H61       -46.5600   73.2540   -7.9240 H         1 PLM         0.0000
      29 H62       -46.6120   71.5900   -8.2320 H         1 PLM         0.0000
      30 H71       -48.7450   71.4340   -6.6310 H         1 PLM         0.0000
      31 H72       -48.7200   73.1220   -6.5070 H         1 PLM         0.0000
      32 H81       -48.8760   73.3580   -9.0850 H         1 PLM         0.0000
      33 H82       -48.7870   71.6780   -9.2730 H         1 PLM         0.0000
      34 H91       -50.9220   71.4200   -7.7310 H         1 PLM         0.0000
      35 H92       -51.0220   73.1070   -7.6190 H         1 PLM         0.0000
      36 HA1       -52.4970   72.4820   -9.4820 H         1 PLM         0.0000
      37 HA2       -51.2020   73.3200  -10.1880 H         1 PLM         0.0000
      38 HB1       -49.9970   70.9390  -10.5330 H         1 PLM         0.0000
      39 HB2       -51.4410   70.2130  -10.0370 H         1 PLM         0.0000
      40 HC1       -52.7050   71.7310  -11.8660 H         1 PLM         0.0000
      41 HC2       -51.1740   72.1960  -12.4310 H         1 PLM         0.0000
      42 HD1       -50.5670   69.6000  -12.6530 H         1 PLM         0.0000
      43 HD2       -52.1780   69.2460  -12.2690 H         1 PLM         0.0000
      44 HE1       -51.2050   70.9170  -14.7130 H         1 PLM         0.0000
      45 HE2       -51.9240   69.3810  -14.7790 H         1 PLM         0.0000
      46 HF1       -54.1410   70.3420  -13.8120 H         1 PLM         0.0000
      47 HF2       -53.4330   71.8720  -13.6490 H         1 PLM         0.0000
      48 HG1       -54.7030   71.7550  -15.8270 H         1 PLM         0.0000
      49 HG2       -52.9090   71.9050  -16.2250 H         1 PLM         0.0000
      50 HG3       -53.6170   70.3750  -16.3880 H         1 PLM         0.0000
@<TRIPOS>BOND
       1        1        2 1
       2        1        3 2
       3        1        4 1
       4        2       19 1
       5        4        5 1
       6        4       20 1
       7        4       21 1
       8        5        6 1
       9        5       22 1
      10        5       23 1
      11        6        7 1
      12        6       24 1
      13        6       25 1
      14        7        8 1
      15        7       26 1
      16        7       27 1
      17        8        9 1
      18        8       28 1
      19        8       29 1
      20        9       10 1
      21        9       30 1
      22        9       31 1
      23       10       11 1
      24       10       32 1
      25       10       33 1
      26       11       12 1
      27       11       34 1
      28       11       35 1
      29       12       13 1
      30       12       36 1
      31       12       37 1
      32       13       14 1
      33       13       38 1
      34       13       39 1
      35       14       15 1
      36       14       40 1
      37       14       41 1
      38       15       16 1
      39       15       42 1
      40       15       43 1
      41       16       17 1
      42       16       44 1
      43       16       45 1
      44       17       18 1
      45       17       46 1
      46       17       47 1
      47       18       48 1
      48       18       49 1
      49       18       50 1
